tests/powsybl/grids/ieee14.xiidm
<?xml version="1.0" encoding="UTF-8"?>
<iidm:network xmlns:iidm="http://www.powsybl.org/schema/iidm/1_15" xmlns:slt="http://www.powsybl.org/schema/iidm/ext/slack_terminal/1_5" id="tmp3ivx2al2" caseDate="2026-04-07T15:52:31.492-04:00" forecastDistance="0" sourceFormat="MATPOWER" minimumValidationLevel="STEADY_STATE_HYPOTHESIS">
    <iidm:substation id="SUB-0">
        <iidm:voltageLevel id="VL-0" nominalV="1.0" lowVoltageLimit="0.94" highVoltageLimit="1.06" topologyKind="BUS_BREAKER">
            <iidm:busBreakerTopology>
                <iidm:bus id="BUS-0" v="1.0" angle="0.0"/>
            </iidm:busBreakerTopology>
            <iidm:generator id="GEN-0" energySource="OTHER" minP="0.0" maxP="340.0" ratedS="100.0" voltageRegulatorOn="true" targetP="170.0" targetV="1.0" targetQ="5.0" bus="BUS-0" connectableBus="BUS-0">
                <iidm:minMaxReactiveLimits minQ="0.0" maxQ="10.0"/>
            </iidm:generator>
        </iidm:voltageLevel>
    </iidm:substation>
    <iidm:substation id="SUB-1">
        <iidm:voltageLevel id="VL-1" nominalV="1.0" lowVoltageLimit="0.94" highVoltageLimit="1.06" topologyKind="BUS_BREAKER">
            <iidm:busBreakerTopology>
                <iidm:bus id="BUS-1" v="1.0" angle="0.0"/>
            </iidm:busBreakerTopology>
            <iidm:generator id="GEN-1" energySource="OTHER" minP="0.0" maxP="59.0" ratedS="100.0" voltageRegulatorOn="true" targetP="29.5" targetV="1.0" targetQ="0.0" bus="BUS-1" connectableBus="BUS-1">
                <iidm:minMaxReactiveLimits minQ="-30.0" maxQ="30.0"/>
            </iidm:generator>
            <iidm:load id="LOAD-1" loadType="UNDEFINED" p0="21.7" q0="12.7" bus="BUS-1" connectableBus="BUS-1"/>
        </iidm:voltageLevel>
    </iidm:substation>
    <iidm:substation id="SUB-2">
        <iidm:voltageLevel id="VL-2" nominalV="1.0" lowVoltageLimit="0.94" highVoltageLimit="1.06" topologyKind="BUS_BREAKER">
            <iidm:busBreakerTopology>
                <iidm:bus id="BUS-2" v="1.0" angle="0.0"/>
            </iidm:busBreakerTopology>
            <iidm:generator id="GEN-2" energySource="OTHER" minP="0.0" maxP="0.0" ratedS="100.0" voltageRegulatorOn="true" targetP="0.0" targetV="1.0" targetQ="20.0" bus="BUS-2" connectableBus="BUS-2">
                <iidm:minMaxReactiveLimits minQ="0.0" maxQ="40.0"/>
            </iidm:generator>
            <iidm:load id="LOAD-2" loadType="UNDEFINED" p0="94.2" q0="19.0" bus="BUS-2" connectableBus="BUS-2"/>
        </iidm:voltageLevel>
    </iidm:substation>
    <iidm:substation id="SUB-3">
        <iidm:voltageLevel id="VL-3" nominalV="1.0" lowVoltageLimit="0.94" highVoltageLimit="1.06" topologyKind="BUS_BREAKER">
            <iidm:busBreakerTopology>
                <iidm:bus id="BUS-3" v="1.0" angle="0.0"/>
                <iidm:bus id="BUS-6" v="1.0" angle="0.0"/>
                <iidm:bus id="BUS-8" v="1.0" angle="0.0"/>
            </iidm:busBreakerTopology>
            <iidm:load id="LOAD-3" loadType="UNDEFINED" p0="47.8" q0="-3.9" bus="BUS-3" connectableBus="BUS-3"/>
            <iidm:load id="LOAD-8" loadType="UNDEFINED" p0="29.5" q0="16.6" bus="BUS-8" connectableBus="BUS-8"/>
            <iidm:shunt id="SHUNT-8" sectionCount="1" voltageRegulatorOn="false" bus="BUS-8" connectableBus="BUS-8">
                <iidm:shuntLinearModel bPerSection="19.0" gPerSection="0.0" maximumSectionCount="1"/>
            </iidm:shunt>
        </iidm:voltageLevel>
        <iidm:twoWindingsTransformer id="TWT-3-6" r="0.0" x="0.0020912" g="0.0" b="0.0" ratedU1="0.978" ratedU2="1.0" voltageLevelId1="VL-3" bus1="BUS-3" connectableBus1="BUS-3" voltageLevelId2="VL-3" bus2="BUS-6" connectableBus2="BUS-6" selectedOperationalLimitsGroupId1="DEFAULT" selectedOperationalLimitsGroupId2="DEFAULT">
            <iidm:operationalLimitsGroup1 id="DEFAULT">
                <iidm:apparentPowerLimits permanentLimit="141.0">
                    <iidm:temporaryLimit name="RateB" acceptableDuration="1200" value="141.0"/>
                    <iidm:temporaryLimit name="RateC" acceptableDuration="60" value="141.0"/>
                </iidm:apparentPowerLimits>
            </iidm:operationalLimitsGroup1>
            <iidm:operationalLimitsGroup2 id="DEFAULT">
                <iidm:apparentPowerLimits permanentLimit="141.0">
                    <iidm:temporaryLimit name="RateB" acceptableDuration="1200" value="141.0"/>
                    <iidm:temporaryLimit name="RateC" acceptableDuration="60" value="141.0"/>
                </iidm:apparentPowerLimits>
            </iidm:operationalLimitsGroup2>
        </iidm:twoWindingsTransformer>
        <iidm:twoWindingsTransformer id="TWT-3-8" r="0.0" x="0.0055618" g="0.0" b="0.0" ratedU1="0.969" ratedU2="1.0" voltageLevelId1="VL-3" bus1="BUS-3" connectableBus1="BUS-3" voltageLevelId2="VL-3" bus2="BUS-8" connectableBus2="BUS-8" selectedOperationalLimitsGroupId1="DEFAULT" selectedOperationalLimitsGroupId2="DEFAULT">
            <iidm:operationalLimitsGroup1 id="DEFAULT">
                <iidm:apparentPowerLimits permanentLimit="53.0">
                    <iidm:temporaryLimit name="RateB" acceptableDuration="1200" value="53.0"/>
                    <iidm:temporaryLimit name="RateC" acceptableDuration="60" value="53.0"/>
                </iidm:apparentPowerLimits>
            </iidm:operationalLimitsGroup1>
            <iidm:operationalLimitsGroup2 id="DEFAULT">
                <iidm:apparentPowerLimits permanentLimit="53.0">
                    <iidm:temporaryLimit name="RateB" acceptableDuration="1200" value="53.0"/>
                    <iidm:temporaryLimit name="RateC" acceptableDuration="60" value="53.0"/>
                </iidm:apparentPowerLimits>
            </iidm:operationalLimitsGroup2>
        </iidm:twoWindingsTransformer>
    </iidm:substation>
    <iidm:substation id="SUB-4">
        <iidm:voltageLevel id="VL-4" nominalV="1.0" lowVoltageLimit="0.94" highVoltageLimit="1.06" topologyKind="BUS_BREAKER">
            <iidm:busBreakerTopology>
                <iidm:bus id="BUS-4" v="1.0" angle="0.0"/>
                <iidm:bus id="BUS-5" v="1.0" angle="0.0"/>
            </iidm:busBreakerTopology>
            <iidm:generator id="GEN-5" energySource="OTHER" minP="0.0" maxP="0.0" ratedS="100.0" voltageRegulatorOn="true" targetP="0.0" targetV="1.0" targetQ="9.0" bus="BUS-5" connectableBus="BUS-5">
                <iidm:minMaxReactiveLimits minQ="-6.0" maxQ="24.0"/>
            </iidm:generator>
            <iidm:load id="LOAD-4" loadType="UNDEFINED" p0="7.6" q0="1.6" bus="BUS-4" connectableBus="BUS-4"/>
            <iidm:load id="LOAD-5" loadType="UNDEFINED" p0="11.2" q0="7.5" bus="BUS-5" connectableBus="BUS-5"/>
        </iidm:voltageLevel>
        <iidm:twoWindingsTransformer id="TWT-4-5" r="0.0" x="0.0025202000000000002" g="0.0" b="0.0" ratedU1="0.932" ratedU2="1.0" voltageLevelId1="VL-4" bus1="BUS-4" connectableBus1="BUS-4" voltageLevelId2="VL-4" bus2="BUS-5" connectableBus2="BUS-5" selectedOperationalLimitsGroupId1="DEFAULT" selectedOperationalLimitsGroupId2="DEFAULT">
            <iidm:operationalLimitsGroup1 id="DEFAULT">
                <iidm:apparentPowerLimits permanentLimit="117.0">
                    <iidm:temporaryLimit name="RateB" acceptableDuration="1200" value="117.0"/>
                    <iidm:temporaryLimit name="RateC" acceptableDuration="60" value="117.0"/>
                </iidm:apparentPowerLimits>
            </iidm:operationalLimitsGroup1>
            <iidm:operationalLimitsGroup2 id="DEFAULT">
                <iidm:apparentPowerLimits permanentLimit="117.0">
                    <iidm:temporaryLimit name="RateB" acceptableDuration="1200" value="117.0"/>
                    <iidm:temporaryLimit name="RateC" acceptableDuration="60" value="117.0"/>
                </iidm:apparentPowerLimits>
            </iidm:operationalLimitsGroup2>
        </iidm:twoWindingsTransformer>
    </iidm:substation>
    <iidm:substation id="SUB-7">
        <iidm:voltageLevel id="VL-7" nominalV="1.0" lowVoltageLimit="0.94" highVoltageLimit="1.06" topologyKind="BUS_BREAKER">
            <iidm:busBreakerTopology>
                <iidm:bus id="BUS-7" v="1.0" angle="0.0"/>
            </iidm:busBreakerTopology>
            <iidm:generator id="GEN-7" energySource="OTHER" minP="0.0" maxP="0.0" ratedS="100.0" voltageRegulatorOn="true" targetP="0.0" targetV="1.0" targetQ="9.0" bus="BUS-7" connectableBus="BUS-7">
                <iidm:minMaxReactiveLimits minQ="-6.0" maxQ="24.0"/>
            </iidm:generator>
        </iidm:voltageLevel>
    </iidm:substation>
    <iidm:substation id="SUB-9">
        <iidm:voltageLevel id="VL-9" nominalV="1.0" lowVoltageLimit="0.94" highVoltageLimit="1.06" topologyKind="BUS_BREAKER">
            <iidm:busBreakerTopology>
                <iidm:bus id="BUS-9" v="1.0" angle="0.0"/>
            </iidm:busBreakerTopology>
            <iidm:load id="LOAD-9" loadType="UNDEFINED" p0="9.0" q0="5.8" bus="BUS-9" connectableBus="BUS-9"/>
        </iidm:voltageLevel>
    </iidm:substation>
    <iidm:substation id="SUB-10">
        <iidm:voltageLevel id="VL-10" nominalV="1.0" lowVoltageLimit="0.94" highVoltageLimit="1.06" topologyKind="BUS_BREAKER">
            <iidm:busBreakerTopology>
                <iidm:bus id="BUS-10" v="1.0" angle="0.0"/>
            </iidm:busBreakerTopology>
            <iidm:load id="LOAD-10" loadType="UNDEFINED" p0="3.5000000000000004" q0="1.8000000000000003" bus="BUS-10" connectableBus="BUS-10"/>
        </iidm:voltageLevel>
    </iidm:substation>
    <iidm:substation id="SUB-11">
        <iidm:voltageLevel id="VL-11" nominalV="1.0" lowVoltageLimit="0.94" highVoltageLimit="1.06" topologyKind="BUS_BREAKER">
            <iidm:busBreakerTopology>
                <iidm:bus id="BUS-11" v="1.0" angle="0.0"/>
            </iidm:busBreakerTopology>
            <iidm:load id="LOAD-11" loadType="UNDEFINED" p0="6.1" q0="1.6" bus="BUS-11" connectableBus="BUS-11"/>
        </iidm:voltageLevel>
    </iidm:substation>
    <iidm:substation id="SUB-12">
        <iidm:voltageLevel id="VL-12" nominalV="1.0" lowVoltageLimit="0.94" highVoltageLimit="1.06" topologyKind="BUS_BREAKER">
            <iidm:busBreakerTopology>
                <iidm:bus id="BUS-12" v="1.0" angle="0.0"/>
            </iidm:busBreakerTopology>
            <iidm:load id="LOAD-12" loadType="UNDEFINED" p0="13.5" q0="5.8" bus="BUS-12" connectableBus="BUS-12"/>
        </iidm:voltageLevel>
    </iidm:substation>
    <iidm:substation id="SUB-13">
        <iidm:voltageLevel id="VL-13" nominalV="1.0" lowVoltageLimit="0.94" highVoltageLimit="1.06" topologyKind="BUS_BREAKER">
            <iidm:busBreakerTopology>
                <iidm:bus id="BUS-13" v="1.0" angle="0.0"/>
            </iidm:busBreakerTopology>
            <iidm:load id="LOAD-13" loadType="UNDEFINED" p0="14.899999999999999" q0="5.0" bus="BUS-13" connectableBus="BUS-13"/>
        </iidm:voltageLevel>
    </iidm:substation>
    <iidm:line id="LINE-0-1" r="1.9380000000000002E-4" x="5.917E-4" g1="0.0" b1="2.64" g2="0.0" b2="2.64" voltageLevelId1="VL-0" bus1="BUS-0" connectableBus1="BUS-0" voltageLevelId2="VL-1" bus2="BUS-1" connectableBus2="BUS-1" selectedOperationalLimitsGroupId1="DEFAULT" selectedOperationalLimitsGroupId2="DEFAULT">
        <iidm:operationalLimitsGroup1 id="DEFAULT">
            <iidm:apparentPowerLimits permanentLimit="472.0">
                <iidm:temporaryLimit name="RateB" acceptableDuration="1200" value="472.0"/>
                <iidm:temporaryLimit name="RateC" acceptableDuration="60" value="472.0"/>
            </iidm:apparentPowerLimits>
        </iidm:operationalLimitsGroup1>
        <iidm:operationalLimitsGroup2 id="DEFAULT">
            <iidm:apparentPowerLimits permanentLimit="472.0">
                <iidm:temporaryLimit name="RateB" acceptableDuration="1200" value="472.0"/>
                <iidm:temporaryLimit name="RateC" acceptableDuration="60" value="472.0"/>
            </iidm:apparentPowerLimits>
        </iidm:operationalLimitsGroup2>
    </iidm:line>
    <iidm:line id="LINE-0-4" r="5.403000000000001E-4" x="0.0022304" g1="0.0" b1="2.46" g2="0.0" b2="2.46" voltageLevelId1="VL-0" bus1="BUS-0" connectableBus1="BUS-0" voltageLevelId2="VL-4" bus2="BUS-4" connectableBus2="BUS-4" selectedOperationalLimitsGroupId1="DEFAULT" selectedOperationalLimitsGroupId2="DEFAULT">
        <iidm:operationalLimitsGroup1 id="DEFAULT">
            <iidm:apparentPowerLimits permanentLimit="128.0">
                <iidm:temporaryLimit name="RateB" acceptableDuration="1200" value="128.0"/>
                <iidm:temporaryLimit name="RateC" acceptableDuration="60" value="128.0"/>
            </iidm:apparentPowerLimits>
        </iidm:operationalLimitsGroup1>
        <iidm:operationalLimitsGroup2 id="DEFAULT">
            <iidm:apparentPowerLimits permanentLimit="128.0">
                <iidm:temporaryLimit name="RateB" acceptableDuration="1200" value="128.0"/>
                <iidm:temporaryLimit name="RateC" acceptableDuration="60" value="128.0"/>
            </iidm:apparentPowerLimits>
        </iidm:operationalLimitsGroup2>
    </iidm:line>
    <iidm:line id="LINE-1-2" r="4.699E-4" x="0.0019797" g1="0.0" b1="2.19" g2="0.0" b2="2.19" voltageLevelId1="VL-1" bus1="BUS-1" connectableBus1="BUS-1" voltageLevelId2="VL-2" bus2="BUS-2" connectableBus2="BUS-2" selectedOperationalLimitsGroupId1="DEFAULT" selectedOperationalLimitsGroupId2="DEFAULT">
        <iidm:operationalLimitsGroup1 id="DEFAULT">
            <iidm:apparentPowerLimits permanentLimit="145.0">
                <iidm:temporaryLimit name="RateB" acceptableDuration="1200" value="145.0"/>
                <iidm:temporaryLimit name="RateC" acceptableDuration="60" value="145.0"/>
            </iidm:apparentPowerLimits>
        </iidm:operationalLimitsGroup1>
        <iidm:operationalLimitsGroup2 id="DEFAULT">
            <iidm:apparentPowerLimits permanentLimit="145.0">
                <iidm:temporaryLimit name="RateB" acceptableDuration="1200" value="145.0"/>
                <iidm:temporaryLimit name="RateC" acceptableDuration="60" value="145.0"/>
            </iidm:apparentPowerLimits>
        </iidm:operationalLimitsGroup2>
    </iidm:line>
    <iidm:line id="LINE-1-3" r="5.811E-4" x="0.0017632000000000001" g1="0.0" b1="1.7000000000000002" g2="0.0" b2="1.7000000000000002" voltageLevelId1="VL-1" bus1="BUS-1" connectableBus1="BUS-1" voltageLevelId2="VL-3" bus2="BUS-3" connectableBus2="BUS-3" selectedOperationalLimitsGroupId1="DEFAULT" selectedOperationalLimitsGroupId2="DEFAULT">
        <iidm:operationalLimitsGroup1 id="DEFAULT">
            <iidm:apparentPowerLimits permanentLimit="158.0">
                <iidm:temporaryLimit name="RateB" acceptableDuration="1200" value="158.0"/>
                <iidm:temporaryLimit name="RateC" acceptableDuration="60" value="158.0"/>
            </iidm:apparentPowerLimits>
        </iidm:operationalLimitsGroup1>
        <iidm:operationalLimitsGroup2 id="DEFAULT">
            <iidm:apparentPowerLimits permanentLimit="158.0">
                <iidm:temporaryLimit name="RateB" acceptableDuration="1200" value="158.0"/>
                <iidm:temporaryLimit name="RateC" acceptableDuration="60" value="158.0"/>
            </iidm:apparentPowerLimits>
        </iidm:operationalLimitsGroup2>
    </iidm:line>
    <iidm:line id="LINE-1-4" r="5.695E-4" x="0.0017388" g1="0.0" b1="1.73" g2="0.0" b2="1.73" voltageLevelId1="VL-1" bus1="BUS-1" connectableBus1="BUS-1" voltageLevelId2="VL-4" bus2="BUS-4" connectableBus2="BUS-4" selectedOperationalLimitsGroupId1="DEFAULT" selectedOperationalLimitsGroupId2="DEFAULT">
        <iidm:operationalLimitsGroup1 id="DEFAULT">
            <iidm:apparentPowerLimits permanentLimit="161.0">
                <iidm:temporaryLimit name="RateB" acceptableDuration="1200" value="161.0"/>
                <iidm:temporaryLimit name="RateC" acceptableDuration="60" value="161.0"/>
            </iidm:apparentPowerLimits>
        </iidm:operationalLimitsGroup1>
        <iidm:operationalLimitsGroup2 id="DEFAULT">
            <iidm:apparentPowerLimits permanentLimit="161.0">
                <iidm:temporaryLimit name="RateB" acceptableDuration="1200" value="161.0"/>
                <iidm:temporaryLimit name="RateC" acceptableDuration="60" value="161.0"/>
            </iidm:apparentPowerLimits>
        </iidm:operationalLimitsGroup2>
    </iidm:line>
    <iidm:line id="LINE-2-3" r="6.701E-4" x="0.0017102999999999999" g1="0.0" b1="0.64" g2="0.0" b2="0.64" voltageLevelId1="VL-2" bus1="BUS-2" connectableBus1="BUS-2" voltageLevelId2="VL-3" bus2="BUS-3" connectableBus2="BUS-3" selectedOperationalLimitsGroupId1="DEFAULT" selectedOperationalLimitsGroupId2="DEFAULT">
        <iidm:operationalLimitsGroup1 id="DEFAULT">
            <iidm:apparentPowerLimits permanentLimit="160.0">
                <iidm:temporaryLimit name="RateB" acceptableDuration="1200" value="160.0"/>
                <iidm:temporaryLimit name="RateC" acceptableDuration="60" value="160.0"/>
            </iidm:apparentPowerLimits>
        </iidm:operationalLimitsGroup1>
        <iidm:operationalLimitsGroup2 id="DEFAULT">
            <iidm:apparentPowerLimits permanentLimit="160.0">
                <iidm:temporaryLimit name="RateB" acceptableDuration="1200" value="160.0"/>
                <iidm:temporaryLimit name="RateC" acceptableDuration="60" value="160.0"/>
            </iidm:apparentPowerLimits>
        </iidm:operationalLimitsGroup2>
    </iidm:line>
    <iidm:line id="LINE-3-4" r="1.3350000000000002E-4" x="4.211E-4" g1="0.0" b1="0.0" g2="0.0" b2="0.0" voltageLevelId1="VL-3" bus1="BUS-3" connectableBus1="BUS-3" voltageLevelId2="VL-4" bus2="BUS-4" connectableBus2="BUS-4" selectedOperationalLimitsGroupId1="DEFAULT" selectedOperationalLimitsGroupId2="DEFAULT">
        <iidm:operationalLimitsGroup1 id="DEFAULT">
            <iidm:apparentPowerLimits permanentLimit="664.0">
                <iidm:temporaryLimit name="RateB" acceptableDuration="1200" value="664.0"/>
                <iidm:temporaryLimit name="RateC" acceptableDuration="60" value="664.0"/>
            </iidm:apparentPowerLimits>
        </iidm:operationalLimitsGroup1>
        <iidm:operationalLimitsGroup2 id="DEFAULT">
            <iidm:apparentPowerLimits permanentLimit="664.0">
                <iidm:temporaryLimit name="RateB" acceptableDuration="1200" value="664.0"/>
                <iidm:temporaryLimit name="RateC" acceptableDuration="60" value="664.0"/>
            </iidm:apparentPowerLimits>
        </iidm:operationalLimitsGroup2>
    </iidm:line>
    <iidm:line id="LINE-5-10" r="9.498E-4" x="0.001989" g1="0.0" b1="0.0" g2="0.0" b2="0.0" voltageLevelId1="VL-4" bus1="BUS-5" connectableBus1="BUS-5" voltageLevelId2="VL-10" bus2="BUS-10" connectableBus2="BUS-10" selectedOperationalLimitsGroupId1="DEFAULT" selectedOperationalLimitsGroupId2="DEFAULT">
        <iidm:operationalLimitsGroup1 id="DEFAULT">
            <iidm:apparentPowerLimits permanentLimit="134.0">
                <iidm:temporaryLimit name="RateB" acceptableDuration="1200" value="134.0"/>
                <iidm:temporaryLimit name="RateC" acceptableDuration="60" value="134.0"/>
            </iidm:apparentPowerLimits>
        </iidm:operationalLimitsGroup1>
        <iidm:operationalLimitsGroup2 id="DEFAULT">
            <iidm:apparentPowerLimits permanentLimit="134.0">
                <iidm:temporaryLimit name="RateB" acceptableDuration="1200" value="134.0"/>
                <iidm:temporaryLimit name="RateC" acceptableDuration="60" value="134.0"/>
            </iidm:apparentPowerLimits>
        </iidm:operationalLimitsGroup2>
    </iidm:line>
    <iidm:line id="LINE-5-11" r="0.0012291000000000001" x="0.0025581" g1="0.0" b1="0.0" g2="0.0" b2="0.0" voltageLevelId1="VL-4" bus1="BUS-5" connectableBus1="BUS-5" voltageLevelId2="VL-11" bus2="BUS-11" connectableBus2="BUS-11" selectedOperationalLimitsGroupId1="DEFAULT" selectedOperationalLimitsGroupId2="DEFAULT">
        <iidm:operationalLimitsGroup1 id="DEFAULT">
            <iidm:apparentPowerLimits permanentLimit="104.0">
                <iidm:temporaryLimit name="RateB" acceptableDuration="1200" value="104.0"/>
                <iidm:temporaryLimit name="RateC" acceptableDuration="60" value="104.0"/>
            </iidm:apparentPowerLimits>
        </iidm:operationalLimitsGroup1>
        <iidm:operationalLimitsGroup2 id="DEFAULT">
            <iidm:apparentPowerLimits permanentLimit="104.0">
                <iidm:temporaryLimit name="RateB" acceptableDuration="1200" value="104.0"/>
                <iidm:temporaryLimit name="RateC" acceptableDuration="60" value="104.0"/>
            </iidm:apparentPowerLimits>
        </iidm:operationalLimitsGroup2>
    </iidm:line>
    <iidm:line id="LINE-5-12" r="6.615E-4" x="0.0013027" g1="0.0" b1="0.0" g2="0.0" b2="0.0" voltageLevelId1="VL-4" bus1="BUS-5" connectableBus1="BUS-5" voltageLevelId2="VL-12" bus2="BUS-12" connectableBus2="BUS-12" selectedOperationalLimitsGroupId1="DEFAULT" selectedOperationalLimitsGroupId2="DEFAULT">
        <iidm:operationalLimitsGroup1 id="DEFAULT">
            <iidm:apparentPowerLimits permanentLimit="200.99999999999997">
                <iidm:temporaryLimit name="RateB" acceptableDuration="1200" value="200.99999999999997"/>
                <iidm:temporaryLimit name="RateC" acceptableDuration="60" value="200.99999999999997"/>
            </iidm:apparentPowerLimits>
        </iidm:operationalLimitsGroup1>
        <iidm:operationalLimitsGroup2 id="DEFAULT">
            <iidm:apparentPowerLimits permanentLimit="200.99999999999997">
                <iidm:temporaryLimit name="RateB" acceptableDuration="1200" value="200.99999999999997"/>
                <iidm:temporaryLimit name="RateC" acceptableDuration="60" value="200.99999999999997"/>
            </iidm:apparentPowerLimits>
        </iidm:operationalLimitsGroup2>
    </iidm:line>
    <iidm:line id="LINE-6-7" r="0.0" x="0.0017615" g1="0.0" b1="0.0" g2="0.0" b2="0.0" voltageLevelId1="VL-3" bus1="BUS-6" connectableBus1="BUS-6" voltageLevelId2="VL-7" bus2="BUS-7" connectableBus2="BUS-7" selectedOperationalLimitsGroupId1="DEFAULT" selectedOperationalLimitsGroupId2="DEFAULT">
        <iidm:operationalLimitsGroup1 id="DEFAULT">
            <iidm:apparentPowerLimits permanentLimit="167.0">
                <iidm:temporaryLimit name="RateB" acceptableDuration="1200" value="167.0"/>
                <iidm:temporaryLimit name="RateC" acceptableDuration="60" value="167.0"/>
            </iidm:apparentPowerLimits>
        </iidm:operationalLimitsGroup1>
        <iidm:operationalLimitsGroup2 id="DEFAULT">
            <iidm:apparentPowerLimits permanentLimit="167.0">
                <iidm:temporaryLimit name="RateB" acceptableDuration="1200" value="167.0"/>
                <iidm:temporaryLimit name="RateC" acceptableDuration="60" value="167.0"/>
            </iidm:apparentPowerLimits>
        </iidm:operationalLimitsGroup2>
    </iidm:line>
    <iidm:line id="LINE-6-8" r="0.0" x="0.0011001" g1="0.0" b1="0.0" g2="0.0" b2="0.0" voltageLevelId1="VL-3" bus1="BUS-6" connectableBus1="BUS-6" voltageLevelId2="VL-3" bus2="BUS-8" connectableBus2="BUS-8" selectedOperationalLimitsGroupId1="DEFAULT" selectedOperationalLimitsGroupId2="DEFAULT">
        <iidm:operationalLimitsGroup1 id="DEFAULT">
            <iidm:apparentPowerLimits permanentLimit="267.0">
                <iidm:temporaryLimit name="RateB" acceptableDuration="1200" value="267.0"/>
                <iidm:temporaryLimit name="RateC" acceptableDuration="60" value="267.0"/>
            </iidm:apparentPowerLimits>
        </iidm:operationalLimitsGroup1>
        <iidm:operationalLimitsGroup2 id="DEFAULT">
            <iidm:apparentPowerLimits permanentLimit="267.0">
                <iidm:temporaryLimit name="RateB" acceptableDuration="1200" value="267.0"/>
                <iidm:temporaryLimit name="RateC" acceptableDuration="60" value="267.0"/>
            </iidm:apparentPowerLimits>
        </iidm:operationalLimitsGroup2>
    </iidm:line>
    <iidm:line id="LINE-8-9" r="3.181E-4" x="8.45E-4" g1="0.0" b1="0.0" g2="0.0" b2="0.0" voltageLevelId1="VL-3" bus1="BUS-8" connectableBus1="BUS-8" voltageLevelId2="VL-9" bus2="BUS-9" connectableBus2="BUS-9" selectedOperationalLimitsGroupId1="DEFAULT" selectedOperationalLimitsGroupId2="DEFAULT">
        <iidm:operationalLimitsGroup1 id="DEFAULT">
            <iidm:apparentPowerLimits permanentLimit="325.0">
                <iidm:temporaryLimit name="RateB" acceptableDuration="1200" value="325.0"/>
                <iidm:temporaryLimit name="RateC" acceptableDuration="60" value="325.0"/>
            </iidm:apparentPowerLimits>
        </iidm:operationalLimitsGroup1>
        <iidm:operationalLimitsGroup2 id="DEFAULT">
            <iidm:apparentPowerLimits permanentLimit="325.0">
                <iidm:temporaryLimit name="RateB" acceptableDuration="1200" value="325.0"/>
                <iidm:temporaryLimit name="RateC" acceptableDuration="60" value="325.0"/>
            </iidm:apparentPowerLimits>
        </iidm:operationalLimitsGroup2>
    </iidm:line>
    <iidm:line id="LINE-8-13" r="0.0012711" x="0.0027038" g1="0.0" b1="0.0" g2="0.0" b2="0.0" voltageLevelId1="VL-3" bus1="BUS-8" connectableBus1="BUS-8" voltageLevelId2="VL-13" bus2="BUS-13" connectableBus2="BUS-13" selectedOperationalLimitsGroupId1="DEFAULT" selectedOperationalLimitsGroupId2="DEFAULT">
        <iidm:operationalLimitsGroup1 id="DEFAULT">
            <iidm:apparentPowerLimits permanentLimit="99.0">
                <iidm:temporaryLimit name="RateB" acceptableDuration="1200" value="99.0"/>
                <iidm:temporaryLimit name="RateC" acceptableDuration="60" value="99.0"/>
            </iidm:apparentPowerLimits>
        </iidm:operationalLimitsGroup1>
        <iidm:operationalLimitsGroup2 id="DEFAULT">
            <iidm:apparentPowerLimits permanentLimit="99.0">
                <iidm:temporaryLimit name="RateB" acceptableDuration="1200" value="99.0"/>
                <iidm:temporaryLimit name="RateC" acceptableDuration="60" value="99.0"/>
            </iidm:apparentPowerLimits>
        </iidm:operationalLimitsGroup2>
    </iidm:line>
    <iidm:line id="LINE-9-10" r="8.204999999999999E-4" x="0.0019207" g1="0.0" b1="0.0" g2="0.0" b2="0.0" voltageLevelId1="VL-9" bus1="BUS-9" connectableBus1="BUS-9" voltageLevelId2="VL-10" bus2="BUS-10" connectableBus2="BUS-10" selectedOperationalLimitsGroupId1="DEFAULT" selectedOperationalLimitsGroupId2="DEFAULT">
        <iidm:operationalLimitsGroup1 id="DEFAULT">
            <iidm:apparentPowerLimits permanentLimit="141.0">
                <iidm:temporaryLimit name="RateB" acceptableDuration="1200" value="141.0"/>
                <iidm:temporaryLimit name="RateC" acceptableDuration="60" value="141.0"/>
            </iidm:apparentPowerLimits>
        </iidm:operationalLimitsGroup1>
        <iidm:operationalLimitsGroup2 id="DEFAULT">
            <iidm:apparentPowerLimits permanentLimit="141.0">
                <iidm:temporaryLimit name="RateB" acceptableDuration="1200" value="141.0"/>
                <iidm:temporaryLimit name="RateC" acceptableDuration="60" value="141.0"/>
            </iidm:apparentPowerLimits>
        </iidm:operationalLimitsGroup2>
    </iidm:line>
    <iidm:line id="LINE-11-12" r="0.0022092" x="0.0019988000000000002" g1="0.0" b1="0.0" g2="0.0" b2="0.0" voltageLevelId1="VL-11" bus1="BUS-11" connectableBus1="BUS-11" voltageLevelId2="VL-12" bus2="BUS-12" connectableBus2="BUS-12" selectedOperationalLimitsGroupId1="DEFAULT" selectedOperationalLimitsGroupId2="DEFAULT">
        <iidm:operationalLimitsGroup1 id="DEFAULT">
            <iidm:apparentPowerLimits permanentLimit="99.0">
                <iidm:temporaryLimit name="RateB" acceptableDuration="1200" value="99.0"/>
                <iidm:temporaryLimit name="RateC" acceptableDuration="60" value="99.0"/>
            </iidm:apparentPowerLimits>
        </iidm:operationalLimitsGroup1>
        <iidm:operationalLimitsGroup2 id="DEFAULT">
            <iidm:apparentPowerLimits permanentLimit="99.0">
                <iidm:temporaryLimit name="RateB" acceptableDuration="1200" value="99.0"/>
                <iidm:temporaryLimit name="RateC" acceptableDuration="60" value="99.0"/>
            </iidm:apparentPowerLimits>
        </iidm:operationalLimitsGroup2>
    </iidm:line>
    <iidm:line id="LINE-12-13" r="0.0017093" x="0.0034802" g1="0.0" b1="0.0" g2="0.0" b2="0.0" voltageLevelId1="VL-12" bus1="BUS-12" connectableBus1="BUS-12" voltageLevelId2="VL-13" bus2="BUS-13" connectableBus2="BUS-13" selectedOperationalLimitsGroupId1="DEFAULT" selectedOperationalLimitsGroupId2="DEFAULT">
        <iidm:operationalLimitsGroup1 id="DEFAULT">
            <iidm:apparentPowerLimits permanentLimit="76.0">
                <iidm:temporaryLimit name="RateB" acceptableDuration="1200" value="76.0"/>
                <iidm:temporaryLimit name="RateC" acceptableDuration="60" value="76.0"/>
            </iidm:apparentPowerLimits>
        </iidm:operationalLimitsGroup1>
        <iidm:operationalLimitsGroup2 id="DEFAULT">
            <iidm:apparentPowerLimits permanentLimit="76.0">
                <iidm:temporaryLimit name="RateB" acceptableDuration="1200" value="76.0"/>
                <iidm:temporaryLimit name="RateC" acceptableDuration="60" value="76.0"/>
            </iidm:apparentPowerLimits>
        </iidm:operationalLimitsGroup2>
    </iidm:line>
    <iidm:extension id="VL-0">
        <slt:slackTerminal id="GEN-0"/>
    </iidm:extension>
</iidm:network>
